tests/data/power_flow/automatic-tap-regulator/achievable-voltage-above-band-fast-any/sym_output.json
{
  "version": "1.0",
  "type": "sym_output",
  "is_batch": false,
  "attributes": {},
  "data": {
    "node": [
      {
        "id": 1,
        "energized": 1,
        "u_pu": 0.9999999999991623,
        "u": 9999.999999991624,
        "u_angle": -8.375022716042603e-12,
        "p": 0.08416799907033534,
        "q": 2.330763442806698e-09
      },
      {
        "id": 2,
        "energized": 1,
        "u_pu": 0.9174311880726247,
        "u": 366.9724752290499,
        "u_angle": -2.6179939277492403,
        "p": 0,
        "q": 0
      }
    ],
    "transformer": [
      {
        "id": 4,
        "energized": 1,
        "loading": 8.416799907033537e-07,
        "p_from": 0.08416799907033534,
        "q_from": 2.330763442806698e-09,
        "i_from": 4.859441692045101e-06,
        "s_from": 0.08416799907033537,
        "p_to": 0,
        "q_to": 0,
        "i_to": 0,
        "s_to": 0
      }
    ],
    "source": [
      {
        "id": 3,
        "energized": 1,
        "p": 0.08416799907033534,
        "q": 2.330763442806698e-09,
        "i": 4.859441692045101e-06,
        "s": 0.08416799907033537,
        "pf": 0.9999999999999997
      }
    ],
    "transformer_tap_regulator": [
      {
        "id": 8,
        "energized": 1,
        "tap_pos": 9
      }
    ]
  }
}
